 5
 Methane
   C      0.0000      0.0000      0.0000
   H      0.6252      0.6252      0.6252
   H     -0.6252     -0.6252      0.6252
   H     -0.6252      0.6252     -0.6252
   H      0.6252     -0.6252     -0.6252
 4
 Ammonia
   N      0.0000      0.0000      0.1000
   H      0.5288      0.1610      0.9359
   H      0.2051      0.8240     -0.6786
   H      0.3345     -0.9314     -0.4496
3
 Water
   O      0.0000      0.0000      0.1140
   H      0.0000      0.7808     -0.4562
   H      0.0000     -0.7808     -0.4561
